/*--------------------------------*- C++ -*----------------------------------*\
  =========                 |
  \\      /  F ield         | OpenFOAM: The Open Source CFD Toolbox
   \\    /   O peration     | Website:  https://openfoam.org
    \\  /    A nd           | Version:  dev
     \\/     M anipulation  |
\*---------------------------------------------------------------------------*/
FoamFile
{
    format      ascii;
    class       dictionary;
    object      blockMeshDict;
}
// * * * * * * * * * * * * * * * * * * * * * * * * * * * * * * * * * * * * * //

convertToMeters 0.1;

vertices
(
    (0 0   0)
    (1 0   0)
    (1 0.2 0)
    (0 0.2 0)
    (0 0   0.2)
    (1 0   0.2)
    (1 0.2 0.2)
    (0 0.2 0.2)
);

blocks
(
    hex (0 1 2 3 4 5 6 7) (100 1 1) simpleGrading (1 1 1)
);

boundary
(
    xmax
    {
        type patch;
        faces
        (
            (0 4 7 3)
        );
    }
    xmin
    {
        type patch;
        faces
        (
            
            (1 2 6 5)
            
        );
    }
    frontAndBack
    {
        type empty;
        faces
        (
            (0 3 2 1)
            (3 7 6 2)
            (4 5 6 7)
            (4 0 1 5)
            
        );
    }
);


// ************************************************************************* //
